/*--------------------------------*- C++ -*----------------------------------*\
| =========                 |                                                 |
| \\      /  F ield         | OpenFOAM: The Open Source CFD Toolbox           |
|  \\    /   O peration     | Version:  4.1                                   |
|   \\  /    A nd           | Web:      www.OpenFOAM.org                      |
|    \\/     M anipulation  |                                                 |
\*---------------------------------------------------------------------------*/
FoamFile
{
    version     2.0;
    format      ascii;
    class       polyBoundaryMesh;
    location    "constant/polyMesh";
    object      boundary;
}
// * * * * * * * * * * * * * * * * * * * * * * * * * * * * * * * * * * * * * //

5
(
    frontAndBack
    {
        type            empty;
        physicalType    empty;
        nFaces          29120;
        startFace       21702;
    }
    perfil
    {
        type            wall;
        physicalType    wall;
        nFaces          96;
        startFace       50822;
    }
    walls
    {
        type            wall;
        physicalType    wall;
        nFaces          120;
        startFace       50918;
    }
    outlet
    {
        type            patch;
        physicalType    patch;
        nFaces          30;
        startFace       51038;
    }
    inlet
    {
        type            patch;
        physicalType    patch;
        nFaces          30;
        startFace       51068;
    }
)

// ************************************************************************* //
