/*--------------------------------*- C++ -*----------------------------------*\
| =========                 |                                                 |
| \\      /  F ield         | OpenFOAM: The Open Source CFD Toolbox           |
|  \\    /   O peration     | Version:  4.1                                   |
|   \\  /    A nd           | Web:      www.OpenFOAM.org                      |
|    \\/     M anipulation  |                                                 |
\*---------------------------------------------------------------------------*/
FoamFile
{
    version     2.0;
    format      ascii;
    class       dictionary;
    location    "system";
    object      controlDict;
}
// * * * * * * * * * * * * * * * * * * * * * * * * * * * * * * * * * * * * * //

application     simpleFoam;

startFrom       latestTime;

startTime       0;

stopAt          endTime;

endTime         5000;

deltaT          1;

writeControl    timeStep;

writeInterval   20;

purgeWrite      0;

writeFormat     ascii;

writePrecision  6;

writeCompression off;

timeFormat      general;

timePrecision   6;

runTimeModifiable true;

functions
{
    #include "forces"
}

functions
{
    probes
    {
        // Where to load it from
        libs ( "libsampling.so" );

        type            probes;

        // Name of the directory for probe data
        name            probes;

        // Write at same frequency as fields
        writeControl    writeTime;
        writeInterval  1;

        // Fields to be probed
        fields
        (
            p U
        );

        probeLocations
        (
            //perfil
            ()
			()
			()
			()
			()
			()
			()
			()
			()
			()
			()
			()
			()
			()
			()
			()
			()
			()
			()
			()
			()
			()
			()
			()
			()
			()
			()
			()
			()
			()
			()
			()
			()
			()
			()
			()
			()
			()
			()
			()
			()
			()
			()
			()
			()
			()
			()
			()
			()
			()
			()
			()
			()
			()
			()
			()
			()
			()
			()
			()
			()
			()
			()
			()
			()
			()
			()
			()
			()
			()
			()
			()
			()
			()
			()
			()
			()
			()
			()
			()
			()
			()
			()
			()
			()
			()
			()
			()
			()
			()
			()
			()
			()
			()
			()
			()
			()
        );
    }
}


// ************************************************************************* //
